// set up power supply node and logic thresholds
.global vdd
VDD vdd gnd 1.0v
.options vil=0.2 vih=0.8

.include "/shared/jsim/stdcell.jsim"
// .include "/shared/jsim/lab3_test_mult.jsim"
.include"/shared/jsim/lab3checkoff_10.jsim"


//--------------------------------------------------
// BOOL
//--------------------------------------------------
.subckt BOOL alufn[3:0] A[31:0] B[31:0] OUT[31:0]
Xm4 mux4 A[31:0] B[31:0] alufn[0]#32 alufn[1]#32 alufn[2]#32 alufn[3]#32 OUT[31:0]
.ends

// 2-input Full Adder
.subckt FA A B Cin S Cout
  XxorAB xor2 B Cin xorBCout
  XxorABC xor2 A xorBCout S
  
  XabNAND nand2 A B ABout
  XacNAND nand2 A Cin ACout
  XbcNAND nand2 B Cin BCout
  XabcNAND nand3 ABout ACout BCout Cout
.ends

// 32-input NOR
.subckt nor32 a[31:0] z
  Xgroup1 nor4 a[31:28] group1
  Xgroup2 nor4 a[27:24] group2
  Xgroup3 nor4 a[23:20] group3
  Xgroup4 nor4 a[19:16] group4
  Xgroup5 nor4 a[15:12] group5
  Xgroup6 nor4 a[11:8] group6
  Xgroup7 nor4 a[7:4] group7
  Xgroup8 nor4 a[3:0] group8
  Xgroup1_2 nand4 group1 group2 group3 group4 group1_2
  Xgroup2_2 nand4 group5 group6 group7 group8 group2_2
  Xgroup1_3 nor2 group1_2 group2_2 z
.ends

//--------------------------------------------------
// ARITH
//--------------------------------------------------
.subckt ARITH alufn[1:0] A[31:0] B[31:0] OUT[31:0] Z V N

// Choose between multiplication or add/sub
XaddORmult mux2 alufn[1]#32 sumOUT[31:0] multOUT[31:0] OUT[31:0]

// MULTIPLIER --------------------------------------
XandA0B0 and2 A[0] B[0] multOUT[0]
XandA1B0 and2 A[1] B[0] outANDA1B0
XandA0B1 and2 A[0] B[1] outANDA0B1
XandA2B0 and2 A[2] B[0] outANDA2B0
XandA1B1 and2 A[1] B[1] outANDA1B1
XandA0B2 and2 A[0] B[2] outANDA0B2
XandA3B0 and2 A[3] B[0] outANDA3B0
XandA2B1 and2 A[2] B[1] outANDA2B1
XandA1B2 and2 A[1] B[2] outANDA1B2
XandA0B3 and2 A[0] B[3] outANDA0B3
XandA4B0 and2 A[4] B[0] outANDA4B0
XandA3B1 and2 A[3] B[1] outANDA3B1
XandA2B2 and2 A[2] B[2] outANDA2B2
XandA1B3 and2 A[1] B[3] outANDA1B3
XandA0B4 and2 A[0] B[4] outANDA0B4
XandA5B0 and2 A[5] B[0] outANDA5B0
XandA4B1 and2 A[4] B[1] outANDA4B1
XandA3B2 and2 A[3] B[2] outANDA3B2
XandA2B3 and2 A[2] B[3] outANDA2B3
XandA1B4 and2 A[1] B[4] outANDA1B4
XandA0B5 and2 A[0] B[5] outANDA0B5
XandA6B0 and2 A[6] B[0] outANDA6B0
XandA5B1 and2 A[5] B[1] outANDA5B1
XandA4B2 and2 A[4] B[2] outANDA4B2
XandA3B3 and2 A[3] B[3] outANDA3B3
XandA2B4 and2 A[2] B[4] outANDA2B4
XandA1B5 and2 A[1] B[5] outANDA1B5
XandA0B6 and2 A[0] B[6] outANDA0B6
XandA7B0 and2 A[7] B[0] outANDA7B0
XandA6B1 and2 A[6] B[1] outANDA6B1
XandA5B2 and2 A[5] B[2] outANDA5B2
XandA4B3 and2 A[4] B[3] outANDA4B3
XandA3B4 and2 A[3] B[4] outANDA3B4
XandA2B5 and2 A[2] B[5] outANDA2B5
XandA1B6 and2 A[1] B[6] outANDA1B6
XandA0B7 and2 A[0] B[7] outANDA0B7
XandA8B0 and2 A[8] B[0] outANDA8B0
XandA7B1 and2 A[7] B[1] outANDA7B1
XandA6B2 and2 A[6] B[2] outANDA6B2
XandA5B3 and2 A[5] B[3] outANDA5B3
XandA4B4 and2 A[4] B[4] outANDA4B4
XandA3B5 and2 A[3] B[5] outANDA3B5
XandA2B6 and2 A[2] B[6] outANDA2B6
XandA1B7 and2 A[1] B[7] outANDA1B7
XandA0B8 and2 A[0] B[8] outANDA0B8
XandA9B0 and2 A[9] B[0] outANDA9B0
XandA8B1 and2 A[8] B[1] outANDA8B1
XandA7B2 and2 A[7] B[2] outANDA7B2
XandA6B3 and2 A[6] B[3] outANDA6B3
XandA5B4 and2 A[5] B[4] outANDA5B4
XandA4B5 and2 A[4] B[5] outANDA4B5
XandA3B6 and2 A[3] B[6] outANDA3B6
XandA2B7 and2 A[2] B[7] outANDA2B7
XandA1B8 and2 A[1] B[8] outANDA1B8
XandA0B9 and2 A[0] B[9] outANDA0B9
XandA10B0 and2 A[10] B[0] outANDA10B0
XandA9B1 and2 A[9] B[1] outANDA9B1
XandA8B2 and2 A[8] B[2] outANDA8B2
XandA7B3 and2 A[7] B[3] outANDA7B3
XandA6B4 and2 A[6] B[4] outANDA6B4
XandA5B5 and2 A[5] B[5] outANDA5B5
XandA4B6 and2 A[4] B[6] outANDA4B6
XandA3B7 and2 A[3] B[7] outANDA3B7
XandA2B8 and2 A[2] B[8] outANDA2B8
XandA1B9 and2 A[1] B[9] outANDA1B9
XandA0B10 and2 A[0] B[10] outANDA0B10
XandA11B0 and2 A[11] B[0] outANDA11B0
XandA10B1 and2 A[10] B[1] outANDA10B1
XandA9B2 and2 A[9] B[2] outANDA9B2
XandA8B3 and2 A[8] B[3] outANDA8B3
XandA7B4 and2 A[7] B[4] outANDA7B4
XandA6B5 and2 A[6] B[5] outANDA6B5
XandA5B6 and2 A[5] B[6] outANDA5B6
XandA4B7 and2 A[4] B[7] outANDA4B7
XandA3B8 and2 A[3] B[8] outANDA3B8
XandA2B9 and2 A[2] B[9] outANDA2B9
XandA1B10 and2 A[1] B[10] outANDA1B10
XandA0B11 and2 A[0] B[11] outANDA0B11
XandA12B0 and2 A[12] B[0] outANDA12B0
XandA11B1 and2 A[11] B[1] outANDA11B1
XandA10B2 and2 A[10] B[2] outANDA10B2
XandA9B3 and2 A[9] B[3] outANDA9B3
XandA8B4 and2 A[8] B[4] outANDA8B4
XandA7B5 and2 A[7] B[5] outANDA7B5
XandA6B6 and2 A[6] B[6] outANDA6B6
XandA5B7 and2 A[5] B[7] outANDA5B7
XandA4B8 and2 A[4] B[8] outANDA4B8
XandA3B9 and2 A[3] B[9] outANDA3B9
XandA2B10 and2 A[2] B[10] outANDA2B10
XandA1B11 and2 A[1] B[11] outANDA1B11
XandA0B12 and2 A[0] B[12] outANDA0B12
XandA13B0 and2 A[13] B[0] outANDA13B0
XandA12B1 and2 A[12] B[1] outANDA12B1
XandA11B2 and2 A[11] B[2] outANDA11B2
XandA10B3 and2 A[10] B[3] outANDA10B3
XandA9B4 and2 A[9] B[4] outANDA9B4
XandA8B5 and2 A[8] B[5] outANDA8B5
XandA7B6 and2 A[7] B[6] outANDA7B6
XandA6B7 and2 A[6] B[7] outANDA6B7
XandA5B8 and2 A[5] B[8] outANDA5B8
XandA4B9 and2 A[4] B[9] outANDA4B9
XandA3B10 and2 A[3] B[10] outANDA3B10
XandA2B11 and2 A[2] B[11] outANDA2B11
XandA1B12 and2 A[1] B[12] outANDA1B12
XandA0B13 and2 A[0] B[13] outANDA0B13
XandA14B0 and2 A[14] B[0] outANDA14B0
XandA13B1 and2 A[13] B[1] outANDA13B1
XandA12B2 and2 A[12] B[2] outANDA12B2
XandA11B3 and2 A[11] B[3] outANDA11B3
XandA10B4 and2 A[10] B[4] outANDA10B4
XandA9B5 and2 A[9] B[5] outANDA9B5
XandA8B6 and2 A[8] B[6] outANDA8B6
XandA7B7 and2 A[7] B[7] outANDA7B7
XandA6B8 and2 A[6] B[8] outANDA6B8
XandA5B9 and2 A[5] B[9] outANDA5B9
XandA4B10 and2 A[4] B[10] outANDA4B10
XandA3B11 and2 A[3] B[11] outANDA3B11
XandA2B12 and2 A[2] B[12] outANDA2B12
XandA1B13 and2 A[1] B[13] outANDA1B13
XandA0B14 and2 A[0] B[14] outANDA0B14
XandA15B0 and2 A[15] B[0] outANDA15B0
XandA14B1 and2 A[14] B[1] outANDA14B1
XandA13B2 and2 A[13] B[2] outANDA13B2
XandA12B3 and2 A[12] B[3] outANDA12B3
XandA11B4 and2 A[11] B[4] outANDA11B4
XandA10B5 and2 A[10] B[5] outANDA10B5
XandA9B6 and2 A[9] B[6] outANDA9B6
XandA8B7 and2 A[8] B[7] outANDA8B7
XandA7B8 and2 A[7] B[8] outANDA7B8
XandA6B9 and2 A[6] B[9] outANDA6B9
XandA5B10 and2 A[5] B[10] outANDA5B10
XandA4B11 and2 A[4] B[11] outANDA4B11
XandA3B12 and2 A[3] B[12] outANDA3B12
XandA2B13 and2 A[2] B[13] outANDA2B13
XandA1B14 and2 A[1] B[14] outANDA1B14
XandA0B15 and2 A[0] B[15] outANDA0B15
XandA16B0 and2 A[16] B[0] outANDA16B0
XandA15B1 and2 A[15] B[1] outANDA15B1
XandA14B2 and2 A[14] B[2] outANDA14B2
XandA13B3 and2 A[13] B[3] outANDA13B3
XandA12B4 and2 A[12] B[4] outANDA12B4
XandA11B5 and2 A[11] B[5] outANDA11B5
XandA10B6 and2 A[10] B[6] outANDA10B6
XandA9B7 and2 A[9] B[7] outANDA9B7
XandA8B8 and2 A[8] B[8] outANDA8B8
XandA7B9 and2 A[7] B[9] outANDA7B9
XandA6B10 and2 A[6] B[10] outANDA6B10
XandA5B11 and2 A[5] B[11] outANDA5B11
XandA4B12 and2 A[4] B[12] outANDA4B12
XandA3B13 and2 A[3] B[13] outANDA3B13
XandA2B14 and2 A[2] B[14] outANDA2B14
XandA1B15 and2 A[1] B[15] outANDA1B15
XandA0B16 and2 A[0] B[16] outANDA0B16
XandA17B0 and2 A[17] B[0] outANDA17B0
XandA16B1 and2 A[16] B[1] outANDA16B1
XandA15B2 and2 A[15] B[2] outANDA15B2
XandA14B3 and2 A[14] B[3] outANDA14B3
XandA13B4 and2 A[13] B[4] outANDA13B4
XandA12B5 and2 A[12] B[5] outANDA12B5
XandA11B6 and2 A[11] B[6] outANDA11B6
XandA10B7 and2 A[10] B[7] outANDA10B7
XandA9B8 and2 A[9] B[8] outANDA9B8
XandA8B9 and2 A[8] B[9] outANDA8B9
XandA7B10 and2 A[7] B[10] outANDA7B10
XandA6B11 and2 A[6] B[11] outANDA6B11
XandA5B12 and2 A[5] B[12] outANDA5B12
XandA4B13 and2 A[4] B[13] outANDA4B13
XandA3B14 and2 A[3] B[14] outANDA3B14
XandA2B15 and2 A[2] B[15] outANDA2B15
XandA1B16 and2 A[1] B[16] outANDA1B16
XandA0B17 and2 A[0] B[17] outANDA0B17
XandA18B0 and2 A[18] B[0] outANDA18B0
XandA17B1 and2 A[17] B[1] outANDA17B1
XandA16B2 and2 A[16] B[2] outANDA16B2
XandA15B3 and2 A[15] B[3] outANDA15B3
XandA14B4 and2 A[14] B[4] outANDA14B4
XandA13B5 and2 A[13] B[5] outANDA13B5
XandA12B6 and2 A[12] B[6] outANDA12B6
XandA11B7 and2 A[11] B[7] outANDA11B7
XandA10B8 and2 A[10] B[8] outANDA10B8
XandA9B9 and2 A[9] B[9] outANDA9B9
XandA8B10 and2 A[8] B[10] outANDA8B10
XandA7B11 and2 A[7] B[11] outANDA7B11
XandA6B12 and2 A[6] B[12] outANDA6B12
XandA5B13 and2 A[5] B[13] outANDA5B13
XandA4B14 and2 A[4] B[14] outANDA4B14
XandA3B15 and2 A[3] B[15] outANDA3B15
XandA2B16 and2 A[2] B[16] outANDA2B16
XandA1B17 and2 A[1] B[17] outANDA1B17
XandA0B18 and2 A[0] B[18] outANDA0B18
XandA19B0 and2 A[19] B[0] outANDA19B0
XandA18B1 and2 A[18] B[1] outANDA18B1
XandA17B2 and2 A[17] B[2] outANDA17B2
XandA16B3 and2 A[16] B[3] outANDA16B3
XandA15B4 and2 A[15] B[4] outANDA15B4
XandA14B5 and2 A[14] B[5] outANDA14B5
XandA13B6 and2 A[13] B[6] outANDA13B6
XandA12B7 and2 A[12] B[7] outANDA12B7
XandA11B8 and2 A[11] B[8] outANDA11B8
XandA10B9 and2 A[10] B[9] outANDA10B9
XandA9B10 and2 A[9] B[10] outANDA9B10
XandA8B11 and2 A[8] B[11] outANDA8B11
XandA7B12 and2 A[7] B[12] outANDA7B12
XandA6B13 and2 A[6] B[13] outANDA6B13
XandA5B14 and2 A[5] B[14] outANDA5B14
XandA4B15 and2 A[4] B[15] outANDA4B15
XandA3B16 and2 A[3] B[16] outANDA3B16
XandA2B17 and2 A[2] B[17] outANDA2B17
XandA1B18 and2 A[1] B[18] outANDA1B18
XandA0B19 and2 A[0] B[19] outANDA0B19
XandA20B0 and2 A[20] B[0] outANDA20B0
XandA19B1 and2 A[19] B[1] outANDA19B1
XandA18B2 and2 A[18] B[2] outANDA18B2
XandA17B3 and2 A[17] B[3] outANDA17B3
XandA16B4 and2 A[16] B[4] outANDA16B4
XandA15B5 and2 A[15] B[5] outANDA15B5
XandA14B6 and2 A[14] B[6] outANDA14B6
XandA13B7 and2 A[13] B[7] outANDA13B7
XandA12B8 and2 A[12] B[8] outANDA12B8
XandA11B9 and2 A[11] B[9] outANDA11B9
XandA10B10 and2 A[10] B[10] outANDA10B10
XandA9B11 and2 A[9] B[11] outANDA9B11
XandA8B12 and2 A[8] B[12] outANDA8B12
XandA7B13 and2 A[7] B[13] outANDA7B13
XandA6B14 and2 A[6] B[14] outANDA6B14
XandA5B15 and2 A[5] B[15] outANDA5B15
XandA4B16 and2 A[4] B[16] outANDA4B16
XandA3B17 and2 A[3] B[17] outANDA3B17
XandA2B18 and2 A[2] B[18] outANDA2B18
XandA1B19 and2 A[1] B[19] outANDA1B19
XandA0B20 and2 A[0] B[20] outANDA0B20
XandA21B0 and2 A[21] B[0] outANDA21B0
XandA20B1 and2 A[20] B[1] outANDA20B1
XandA19B2 and2 A[19] B[2] outANDA19B2
XandA18B3 and2 A[18] B[3] outANDA18B3
XandA17B4 and2 A[17] B[4] outANDA17B4
XandA16B5 and2 A[16] B[5] outANDA16B5
XandA15B6 and2 A[15] B[6] outANDA15B6
XandA14B7 and2 A[14] B[7] outANDA14B7
XandA13B8 and2 A[13] B[8] outANDA13B8
XandA12B9 and2 A[12] B[9] outANDA12B9
XandA11B10 and2 A[11] B[10] outANDA11B10
XandA10B11 and2 A[10] B[11] outANDA10B11
XandA9B12 and2 A[9] B[12] outANDA9B12
XandA8B13 and2 A[8] B[13] outANDA8B13
XandA7B14 and2 A[7] B[14] outANDA7B14
XandA6B15 and2 A[6] B[15] outANDA6B15
XandA5B16 and2 A[5] B[16] outANDA5B16
XandA4B17 and2 A[4] B[17] outANDA4B17
XandA3B18 and2 A[3] B[18] outANDA3B18
XandA2B19 and2 A[2] B[19] outANDA2B19
XandA1B20 and2 A[1] B[20] outANDA1B20
XandA0B21 and2 A[0] B[21] outANDA0B21
XandA22B0 and2 A[22] B[0] outANDA22B0
XandA21B1 and2 A[21] B[1] outANDA21B1
XandA20B2 and2 A[20] B[2] outANDA20B2
XandA19B3 and2 A[19] B[3] outANDA19B3
XandA18B4 and2 A[18] B[4] outANDA18B4
XandA17B5 and2 A[17] B[5] outANDA17B5
XandA16B6 and2 A[16] B[6] outANDA16B6
XandA15B7 and2 A[15] B[7] outANDA15B7
XandA14B8 and2 A[14] B[8] outANDA14B8
XandA13B9 and2 A[13] B[9] outANDA13B9
XandA12B10 and2 A[12] B[10] outANDA12B10
XandA11B11 and2 A[11] B[11] outANDA11B11
XandA10B12 and2 A[10] B[12] outANDA10B12
XandA9B13 and2 A[9] B[13] outANDA9B13
XandA8B14 and2 A[8] B[14] outANDA8B14
XandA7B15 and2 A[7] B[15] outANDA7B15
XandA6B16 and2 A[6] B[16] outANDA6B16
XandA5B17 and2 A[5] B[17] outANDA5B17
XandA4B18 and2 A[4] B[18] outANDA4B18
XandA3B19 and2 A[3] B[19] outANDA3B19
XandA2B20 and2 A[2] B[20] outANDA2B20
XandA1B21 and2 A[1] B[21] outANDA1B21
XandA0B22 and2 A[0] B[22] outANDA0B22
XandA23B0 and2 A[23] B[0] outANDA23B0
XandA22B1 and2 A[22] B[1] outANDA22B1
XandA21B2 and2 A[21] B[2] outANDA21B2
XandA20B3 and2 A[20] B[3] outANDA20B3
XandA19B4 and2 A[19] B[4] outANDA19B4
XandA18B5 and2 A[18] B[5] outANDA18B5
XandA17B6 and2 A[17] B[6] outANDA17B6
XandA16B7 and2 A[16] B[7] outANDA16B7
XandA15B8 and2 A[15] B[8] outANDA15B8
XandA14B9 and2 A[14] B[9] outANDA14B9
XandA13B10 and2 A[13] B[10] outANDA13B10
XandA12B11 and2 A[12] B[11] outANDA12B11
XandA11B12 and2 A[11] B[12] outANDA11B12
XandA10B13 and2 A[10] B[13] outANDA10B13
XandA9B14 and2 A[9] B[14] outANDA9B14
XandA8B15 and2 A[8] B[15] outANDA8B15
XandA7B16 and2 A[7] B[16] outANDA7B16
XandA6B17 and2 A[6] B[17] outANDA6B17
XandA5B18 and2 A[5] B[18] outANDA5B18
XandA4B19 and2 A[4] B[19] outANDA4B19
XandA3B20 and2 A[3] B[20] outANDA3B20
XandA2B21 and2 A[2] B[21] outANDA2B21
XandA1B22 and2 A[1] B[22] outANDA1B22
XandA0B23 and2 A[0] B[23] outANDA0B23
XandA24B0 and2 A[24] B[0] outANDA24B0
XandA23B1 and2 A[23] B[1] outANDA23B1
XandA22B2 and2 A[22] B[2] outANDA22B2
XandA21B3 and2 A[21] B[3] outANDA21B3
XandA20B4 and2 A[20] B[4] outANDA20B4
XandA19B5 and2 A[19] B[5] outANDA19B5
XandA18B6 and2 A[18] B[6] outANDA18B6
XandA17B7 and2 A[17] B[7] outANDA17B7
XandA16B8 and2 A[16] B[8] outANDA16B8
XandA15B9 and2 A[15] B[9] outANDA15B9
XandA14B10 and2 A[14] B[10] outANDA14B10
XandA13B11 and2 A[13] B[11] outANDA13B11
XandA12B12 and2 A[12] B[12] outANDA12B12
XandA11B13 and2 A[11] B[13] outANDA11B13
XandA10B14 and2 A[10] B[14] outANDA10B14
XandA9B15 and2 A[9] B[15] outANDA9B15
XandA8B16 and2 A[8] B[16] outANDA8B16
XandA7B17 and2 A[7] B[17] outANDA7B17
XandA6B18 and2 A[6] B[18] outANDA6B18
XandA5B19 and2 A[5] B[19] outANDA5B19
XandA4B20 and2 A[4] B[20] outANDA4B20
XandA3B21 and2 A[3] B[21] outANDA3B21
XandA2B22 and2 A[2] B[22] outANDA2B22
XandA1B23 and2 A[1] B[23] outANDA1B23
XandA0B24 and2 A[0] B[24] outANDA0B24
XandA25B0 and2 A[25] B[0] outANDA25B0
XandA24B1 and2 A[24] B[1] outANDA24B1
XandA23B2 and2 A[23] B[2] outANDA23B2
XandA22B3 and2 A[22] B[3] outANDA22B3
XandA21B4 and2 A[21] B[4] outANDA21B4
XandA20B5 and2 A[20] B[5] outANDA20B5
XandA19B6 and2 A[19] B[6] outANDA19B6
XandA18B7 and2 A[18] B[7] outANDA18B7
XandA17B8 and2 A[17] B[8] outANDA17B8
XandA16B9 and2 A[16] B[9] outANDA16B9
XandA15B10 and2 A[15] B[10] outANDA15B10
XandA14B11 and2 A[14] B[11] outANDA14B11
XandA13B12 and2 A[13] B[12] outANDA13B12
XandA12B13 and2 A[12] B[13] outANDA12B13
XandA11B14 and2 A[11] B[14] outANDA11B14
XandA10B15 and2 A[10] B[15] outANDA10B15
XandA9B16 and2 A[9] B[16] outANDA9B16
XandA8B17 and2 A[8] B[17] outANDA8B17
XandA7B18 and2 A[7] B[18] outANDA7B18
XandA6B19 and2 A[6] B[19] outANDA6B19
XandA5B20 and2 A[5] B[20] outANDA5B20
XandA4B21 and2 A[4] B[21] outANDA4B21
XandA3B22 and2 A[3] B[22] outANDA3B22
XandA2B23 and2 A[2] B[23] outANDA2B23
XandA1B24 and2 A[1] B[24] outANDA1B24
XandA0B25 and2 A[0] B[25] outANDA0B25
XandA26B0 and2 A[26] B[0] outANDA26B0
XandA25B1 and2 A[25] B[1] outANDA25B1
XandA24B2 and2 A[24] B[2] outANDA24B2
XandA23B3 and2 A[23] B[3] outANDA23B3
XandA22B4 and2 A[22] B[4] outANDA22B4
XandA21B5 and2 A[21] B[5] outANDA21B5
XandA20B6 and2 A[20] B[6] outANDA20B6
XandA19B7 and2 A[19] B[7] outANDA19B7
XandA18B8 and2 A[18] B[8] outANDA18B8
XandA17B9 and2 A[17] B[9] outANDA17B9
XandA16B10 and2 A[16] B[10] outANDA16B10
XandA15B11 and2 A[15] B[11] outANDA15B11
XandA14B12 and2 A[14] B[12] outANDA14B12
XandA13B13 and2 A[13] B[13] outANDA13B13
XandA12B14 and2 A[12] B[14] outANDA12B14
XandA11B15 and2 A[11] B[15] outANDA11B15
XandA10B16 and2 A[10] B[16] outANDA10B16
XandA9B17 and2 A[9] B[17] outANDA9B17
XandA8B18 and2 A[8] B[18] outANDA8B18
XandA7B19 and2 A[7] B[19] outANDA7B19
XandA6B20 and2 A[6] B[20] outANDA6B20
XandA5B21 and2 A[5] B[21] outANDA5B21
XandA4B22 and2 A[4] B[22] outANDA4B22
XandA3B23 and2 A[3] B[23] outANDA3B23
XandA2B24 and2 A[2] B[24] outANDA2B24
XandA1B25 and2 A[1] B[25] outANDA1B25
XandA0B26 and2 A[0] B[26] outANDA0B26
XandA27B0 and2 A[27] B[0] outANDA27B0
XandA26B1 and2 A[26] B[1] outANDA26B1
XandA25B2 and2 A[25] B[2] outANDA25B2
XandA24B3 and2 A[24] B[3] outANDA24B3
XandA23B4 and2 A[23] B[4] outANDA23B4
XandA22B5 and2 A[22] B[5] outANDA22B5
XandA21B6 and2 A[21] B[6] outANDA21B6
XandA20B7 and2 A[20] B[7] outANDA20B7
XandA19B8 and2 A[19] B[8] outANDA19B8
XandA18B9 and2 A[18] B[9] outANDA18B9
XandA17B10 and2 A[17] B[10] outANDA17B10
XandA16B11 and2 A[16] B[11] outANDA16B11
XandA15B12 and2 A[15] B[12] outANDA15B12
XandA14B13 and2 A[14] B[13] outANDA14B13
XandA13B14 and2 A[13] B[14] outANDA13B14
XandA12B15 and2 A[12] B[15] outANDA12B15
XandA11B16 and2 A[11] B[16] outANDA11B16
XandA10B17 and2 A[10] B[17] outANDA10B17
XandA9B18 and2 A[9] B[18] outANDA9B18
XandA8B19 and2 A[8] B[19] outANDA8B19
XandA7B20 and2 A[7] B[20] outANDA7B20
XandA6B21 and2 A[6] B[21] outANDA6B21
XandA5B22 and2 A[5] B[22] outANDA5B22
XandA4B23 and2 A[4] B[23] outANDA4B23
XandA3B24 and2 A[3] B[24] outANDA3B24
XandA2B25 and2 A[2] B[25] outANDA2B25
XandA1B26 and2 A[1] B[26] outANDA1B26
XandA0B27 and2 A[0] B[27] outANDA0B27
XandA28B0 and2 A[28] B[0] outANDA28B0
XandA27B1 and2 A[27] B[1] outANDA27B1
XandA26B2 and2 A[26] B[2] outANDA26B2
XandA25B3 and2 A[25] B[3] outANDA25B3
XandA24B4 and2 A[24] B[4] outANDA24B4
XandA23B5 and2 A[23] B[5] outANDA23B5
XandA22B6 and2 A[22] B[6] outANDA22B6
XandA21B7 and2 A[21] B[7] outANDA21B7
XandA20B8 and2 A[20] B[8] outANDA20B8
XandA19B9 and2 A[19] B[9] outANDA19B9
XandA18B10 and2 A[18] B[10] outANDA18B10
XandA17B11 and2 A[17] B[11] outANDA17B11
XandA16B12 and2 A[16] B[12] outANDA16B12
XandA15B13 and2 A[15] B[13] outANDA15B13
XandA14B14 and2 A[14] B[14] outANDA14B14
XandA13B15 and2 A[13] B[15] outANDA13B15
XandA12B16 and2 A[12] B[16] outANDA12B16
XandA11B17 and2 A[11] B[17] outANDA11B17
XandA10B18 and2 A[10] B[18] outANDA10B18
XandA9B19 and2 A[9] B[19] outANDA9B19
XandA8B20 and2 A[8] B[20] outANDA8B20
XandA7B21 and2 A[7] B[21] outANDA7B21
XandA6B22 and2 A[6] B[22] outANDA6B22
XandA5B23 and2 A[5] B[23] outANDA5B23
XandA4B24 and2 A[4] B[24] outANDA4B24
XandA3B25 and2 A[3] B[25] outANDA3B25
XandA2B26 and2 A[2] B[26] outANDA2B26
XandA1B27 and2 A[1] B[27] outANDA1B27
XandA0B28 and2 A[0] B[28] outANDA0B28
XandA29B0 and2 A[29] B[0] outANDA29B0
XandA28B1 and2 A[28] B[1] outANDA28B1
XandA27B2 and2 A[27] B[2] outANDA27B2
XandA26B3 and2 A[26] B[3] outANDA26B3
XandA25B4 and2 A[25] B[4] outANDA25B4
XandA24B5 and2 A[24] B[5] outANDA24B5
XandA23B6 and2 A[23] B[6] outANDA23B6
XandA22B7 and2 A[22] B[7] outANDA22B7
XandA21B8 and2 A[21] B[8] outANDA21B8
XandA20B9 and2 A[20] B[9] outANDA20B9
XandA19B10 and2 A[19] B[10] outANDA19B10
XandA18B11 and2 A[18] B[11] outANDA18B11
XandA17B12 and2 A[17] B[12] outANDA17B12
XandA16B13 and2 A[16] B[13] outANDA16B13
XandA15B14 and2 A[15] B[14] outANDA15B14
XandA14B15 and2 A[14] B[15] outANDA14B15
XandA13B16 and2 A[13] B[16] outANDA13B16
XandA12B17 and2 A[12] B[17] outANDA12B17
XandA11B18 and2 A[11] B[18] outANDA11B18
XandA10B19 and2 A[10] B[19] outANDA10B19
XandA9B20 and2 A[9] B[20] outANDA9B20
XandA8B21 and2 A[8] B[21] outANDA8B21
XandA7B22 and2 A[7] B[22] outANDA7B22
XandA6B23 and2 A[6] B[23] outANDA6B23
XandA5B24 and2 A[5] B[24] outANDA5B24
XandA4B25 and2 A[4] B[25] outANDA4B25
XandA3B26 and2 A[3] B[26] outANDA3B26
XandA2B27 and2 A[2] B[27] outANDA2B27
XandA1B28 and2 A[1] B[28] outANDA1B28
XandA0B29 and2 A[0] B[29] outANDA0B29
XandA30B0 and2 A[30] B[0] outANDA30B0
XandA29B1 and2 A[29] B[1] outANDA29B1
XandA28B2 and2 A[28] B[2] outANDA28B2
XandA27B3 and2 A[27] B[3] outANDA27B3
XandA26B4 and2 A[26] B[4] outANDA26B4
XandA25B5 and2 A[25] B[5] outANDA25B5
XandA24B6 and2 A[24] B[6] outANDA24B6
XandA23B7 and2 A[23] B[7] outANDA23B7
XandA22B8 and2 A[22] B[8] outANDA22B8
XandA21B9 and2 A[21] B[9] outANDA21B9
XandA20B10 and2 A[20] B[10] outANDA20B10
XandA19B11 and2 A[19] B[11] outANDA19B11
XandA18B12 and2 A[18] B[12] outANDA18B12
XandA17B13 and2 A[17] B[13] outANDA17B13
XandA16B14 and2 A[16] B[14] outANDA16B14
XandA15B15 and2 A[15] B[15] outANDA15B15
XandA14B16 and2 A[14] B[16] outANDA14B16
XandA13B17 and2 A[13] B[17] outANDA13B17
XandA12B18 and2 A[12] B[18] outANDA12B18
XandA11B19 and2 A[11] B[19] outANDA11B19
XandA10B20 and2 A[10] B[20] outANDA10B20
XandA9B21 and2 A[9] B[21] outANDA9B21
XandA8B22 and2 A[8] B[22] outANDA8B22
XandA7B23 and2 A[7] B[23] outANDA7B23
XandA6B24 and2 A[6] B[24] outANDA6B24
XandA5B25 and2 A[5] B[25] outANDA5B25
XandA4B26 and2 A[4] B[26] outANDA4B26
XandA3B27 and2 A[3] B[27] outANDA3B27
XandA2B28 and2 A[2] B[28] outANDA2B28
XandA1B29 and2 A[1] B[29] outANDA1B29
XandA0B30 and2 A[0] B[30] outANDA0B30
XandA31B0 and2 A[31] B[0] outANDA31B0
XandA30B1 and2 A[30] B[1] outANDA30B1
XandA29B2 and2 A[29] B[2] outANDA29B2
XandA28B3 and2 A[28] B[3] outANDA28B3
XandA27B4 and2 A[27] B[4] outANDA27B4
XandA26B5 and2 A[26] B[5] outANDA26B5
XandA25B6 and2 A[25] B[6] outANDA25B6
XandA24B7 and2 A[24] B[7] outANDA24B7
XandA23B8 and2 A[23] B[8] outANDA23B8
XandA22B9 and2 A[22] B[9] outANDA22B9
XandA21B10 and2 A[21] B[10] outANDA21B10
XandA20B11 and2 A[20] B[11] outANDA20B11
XandA19B12 and2 A[19] B[12] outANDA19B12
XandA18B13 and2 A[18] B[13] outANDA18B13
XandA17B14 and2 A[17] B[14] outANDA17B14
XandA16B15 and2 A[16] B[15] outANDA16B15
XandA15B16 and2 A[15] B[16] outANDA15B16
XandA14B17 and2 A[14] B[17] outANDA14B17
XandA13B18 and2 A[13] B[18] outANDA13B18
XandA12B19 and2 A[12] B[19] outANDA12B19
XandA11B20 and2 A[11] B[20] outANDA11B20
XandA10B21 and2 A[10] B[21] outANDA10B21
XandA9B22 and2 A[9] B[22] outANDA9B22
XandA8B23 and2 A[8] B[23] outANDA8B23
XandA7B24 and2 A[7] B[24] outANDA7B24
XandA6B25 and2 A[6] B[25] outANDA6B25
XandA5B26 and2 A[5] B[26] outANDA5B26
XandA4B27 and2 A[4] B[27] outANDA4B27
XandA3B28 and2 A[3] B[28] outANDA3B28
XandA2B29 and2 A[2] B[29] outANDA2B29
XandA1B30 and2 A[1] B[30] outANDA1B30
XandA0B31 and2 A[0] B[31] outANDA0B31
XadderA1B1 FA outANDA1B0 outANDA0B1 gnd multOUT[1] CoutA1B1
XadderA2B1 FA outANDA2B0 outANDA1B1 CoutA1B1 outADDA2B1 CoutA2B1
XadderA2B2 FA outADDA2B1 outANDA0B2 gnd multOUT[2] CoutA2B2
XadderA3B1 FA outANDA3B0 outANDA2B1 CoutA2B1 outADDA3B1 CoutA3B1
XadderA3B2 FA outADDA3B1 outANDA1B2 CoutA2B2 outADDA3B2 CoutA3B2
XadderA3B3 FA outADDA3B2 outANDA0B3 gnd multOUT[3] CoutA3B3
XadderA4B1 FA outANDA4B0 outANDA3B1 CoutA3B1 outADDA4B1 CoutA4B1
XadderA4B2 FA outADDA4B1 outANDA2B2 CoutA3B2 outADDA4B2 CoutA4B2
XadderA4B3 FA outADDA4B2 outANDA1B3 CoutA3B3 outADDA4B3 CoutA4B3
XadderA4B4 FA outADDA4B3 outANDA0B4 gnd multOUT[4] CoutA4B4
XadderA5B1 FA outANDA5B0 outANDA4B1 CoutA4B1 outADDA5B1 CoutA5B1
XadderA5B2 FA outADDA5B1 outANDA3B2 CoutA4B2 outADDA5B2 CoutA5B2
XadderA5B3 FA outADDA5B2 outANDA2B3 CoutA4B3 outADDA5B3 CoutA5B3
XadderA5B4 FA outADDA5B3 outANDA1B4 CoutA4B4 outADDA5B4 CoutA5B4
XadderA5B5 FA outADDA5B4 outANDA0B5 gnd multOUT[5] CoutA5B5
XadderA6B1 FA outANDA6B0 outANDA5B1 CoutA5B1 outADDA6B1 CoutA6B1
XadderA6B2 FA outADDA6B1 outANDA4B2 CoutA5B2 outADDA6B2 CoutA6B2
XadderA6B3 FA outADDA6B2 outANDA3B3 CoutA5B3 outADDA6B3 CoutA6B3
XadderA6B4 FA outADDA6B3 outANDA2B4 CoutA5B4 outADDA6B4 CoutA6B4
XadderA6B5 FA outADDA6B4 outANDA1B5 CoutA5B5 outADDA6B5 CoutA6B5
XadderA6B6 FA outADDA6B5 outANDA0B6 gnd multOUT[6] CoutA6B6
XadderA7B1 FA outANDA7B0 outANDA6B1 CoutA6B1 outADDA7B1 CoutA7B1
XadderA7B2 FA outADDA7B1 outANDA5B2 CoutA6B2 outADDA7B2 CoutA7B2
XadderA7B3 FA outADDA7B2 outANDA4B3 CoutA6B3 outADDA7B3 CoutA7B3
XadderA7B4 FA outADDA7B3 outANDA3B4 CoutA6B4 outADDA7B4 CoutA7B4
XadderA7B5 FA outADDA7B4 outANDA2B5 CoutA6B5 outADDA7B5 CoutA7B5
XadderA7B6 FA outADDA7B5 outANDA1B6 CoutA6B6 outADDA7B6 CoutA7B6
XadderA7B7 FA outADDA7B6 outANDA0B7 gnd multOUT[7] CoutA7B7
XadderA8B1 FA outANDA8B0 outANDA7B1 CoutA7B1 outADDA8B1 CoutA8B1
XadderA8B2 FA outADDA8B1 outANDA6B2 CoutA7B2 outADDA8B2 CoutA8B2
XadderA8B3 FA outADDA8B2 outANDA5B3 CoutA7B3 outADDA8B3 CoutA8B3
XadderA8B4 FA outADDA8B3 outANDA4B4 CoutA7B4 outADDA8B4 CoutA8B4
XadderA8B5 FA outADDA8B4 outANDA3B5 CoutA7B5 outADDA8B5 CoutA8B5
XadderA8B6 FA outADDA8B5 outANDA2B6 CoutA7B6 outADDA8B6 CoutA8B6
XadderA8B7 FA outADDA8B6 outANDA1B7 CoutA7B7 outADDA8B7 CoutA8B7
XadderA8B8 FA outADDA8B7 outANDA0B8 gnd multOUT[8] CoutA8B8
XadderA9B1 FA outANDA9B0 outANDA8B1 CoutA8B1 outADDA9B1 CoutA9B1
XadderA9B2 FA outADDA9B1 outANDA7B2 CoutA8B2 outADDA9B2 CoutA9B2
XadderA9B3 FA outADDA9B2 outANDA6B3 CoutA8B3 outADDA9B3 CoutA9B3
XadderA9B4 FA outADDA9B3 outANDA5B4 CoutA8B4 outADDA9B4 CoutA9B4
XadderA9B5 FA outADDA9B4 outANDA4B5 CoutA8B5 outADDA9B5 CoutA9B5
XadderA9B6 FA outADDA9B5 outANDA3B6 CoutA8B6 outADDA9B6 CoutA9B6
XadderA9B7 FA outADDA9B6 outANDA2B7 CoutA8B7 outADDA9B7 CoutA9B7
XadderA9B8 FA outADDA9B7 outANDA1B8 CoutA8B8 outADDA9B8 CoutA9B8
XadderA9B9 FA outADDA9B8 outANDA0B9 gnd multOUT[9] CoutA9B9
XadderA10B1 FA outANDA10B0 outANDA9B1 CoutA9B1 outADDA10B1 CoutA10B1
XadderA10B2 FA outADDA10B1 outANDA8B2 CoutA9B2 outADDA10B2 CoutA10B2
XadderA10B3 FA outADDA10B2 outANDA7B3 CoutA9B3 outADDA10B3 CoutA10B3
XadderA10B4 FA outADDA10B3 outANDA6B4 CoutA9B4 outADDA10B4 CoutA10B4
XadderA10B5 FA outADDA10B4 outANDA5B5 CoutA9B5 outADDA10B5 CoutA10B5
XadderA10B6 FA outADDA10B5 outANDA4B6 CoutA9B6 outADDA10B6 CoutA10B6
XadderA10B7 FA outADDA10B6 outANDA3B7 CoutA9B7 outADDA10B7 CoutA10B7
XadderA10B8 FA outADDA10B7 outANDA2B8 CoutA9B8 outADDA10B8 CoutA10B8
XadderA10B9 FA outADDA10B8 outANDA1B9 CoutA9B9 outADDA10B9 CoutA10B9
XadderA10B10 FA outADDA10B9 outANDA0B10 gnd multOUT[10] CoutA10B10
XadderA11B1 FA outANDA11B0 outANDA10B1 CoutA10B1 outADDA11B1 CoutA11B1
XadderA11B2 FA outADDA11B1 outANDA9B2 CoutA10B2 outADDA11B2 CoutA11B2
XadderA11B3 FA outADDA11B2 outANDA8B3 CoutA10B3 outADDA11B3 CoutA11B3
XadderA11B4 FA outADDA11B3 outANDA7B4 CoutA10B4 outADDA11B4 CoutA11B4
XadderA11B5 FA outADDA11B4 outANDA6B5 CoutA10B5 outADDA11B5 CoutA11B5
XadderA11B6 FA outADDA11B5 outANDA5B6 CoutA10B6 outADDA11B6 CoutA11B6
XadderA11B7 FA outADDA11B6 outANDA4B7 CoutA10B7 outADDA11B7 CoutA11B7
XadderA11B8 FA outADDA11B7 outANDA3B8 CoutA10B8 outADDA11B8 CoutA11B8
XadderA11B9 FA outADDA11B8 outANDA2B9 CoutA10B9 outADDA11B9 CoutA11B9
XadderA11B10 FA outADDA11B9 outANDA1B10 CoutA10B10 outADDA11B10 CoutA11B10
XadderA11B11 FA outADDA11B10 outANDA0B11 gnd multOUT[11] CoutA11B11
XadderA12B1 FA outANDA12B0 outANDA11B1 CoutA11B1 outADDA12B1 CoutA12B1
XadderA12B2 FA outADDA12B1 outANDA10B2 CoutA11B2 outADDA12B2 CoutA12B2
XadderA12B3 FA outADDA12B2 outANDA9B3 CoutA11B3 outADDA12B3 CoutA12B3
XadderA12B4 FA outADDA12B3 outANDA8B4 CoutA11B4 outADDA12B4 CoutA12B4
XadderA12B5 FA outADDA12B4 outANDA7B5 CoutA11B5 outADDA12B5 CoutA12B5
XadderA12B6 FA outADDA12B5 outANDA6B6 CoutA11B6 outADDA12B6 CoutA12B6
XadderA12B7 FA outADDA12B6 outANDA5B7 CoutA11B7 outADDA12B7 CoutA12B7
XadderA12B8 FA outADDA12B7 outANDA4B8 CoutA11B8 outADDA12B8 CoutA12B8
XadderA12B9 FA outADDA12B8 outANDA3B9 CoutA11B9 outADDA12B9 CoutA12B9
XadderA12B10 FA outADDA12B9 outANDA2B10 CoutA11B10 outADDA12B10 CoutA12B10
XadderA12B11 FA outADDA12B10 outANDA1B11 CoutA11B11 outADDA12B11 CoutA12B11
XadderA12B12 FA outADDA12B11 outANDA0B12 gnd multOUT[12] CoutA12B12
XadderA13B1 FA outANDA13B0 outANDA12B1 CoutA12B1 outADDA13B1 CoutA13B1
XadderA13B2 FA outADDA13B1 outANDA11B2 CoutA12B2 outADDA13B2 CoutA13B2
XadderA13B3 FA outADDA13B2 outANDA10B3 CoutA12B3 outADDA13B3 CoutA13B3
XadderA13B4 FA outADDA13B3 outANDA9B4 CoutA12B4 outADDA13B4 CoutA13B4
XadderA13B5 FA outADDA13B4 outANDA8B5 CoutA12B5 outADDA13B5 CoutA13B5
XadderA13B6 FA outADDA13B5 outANDA7B6 CoutA12B6 outADDA13B6 CoutA13B6
XadderA13B7 FA outADDA13B6 outANDA6B7 CoutA12B7 outADDA13B7 CoutA13B7
XadderA13B8 FA outADDA13B7 outANDA5B8 CoutA12B8 outADDA13B8 CoutA13B8
XadderA13B9 FA outADDA13B8 outANDA4B9 CoutA12B9 outADDA13B9 CoutA13B9
XadderA13B10 FA outADDA13B9 outANDA3B10 CoutA12B10 outADDA13B10 CoutA13B10
XadderA13B11 FA outADDA13B10 outANDA2B11 CoutA12B11 outADDA13B11 CoutA13B11
XadderA13B12 FA outADDA13B11 outANDA1B12 CoutA12B12 outADDA13B12 CoutA13B12
XadderA13B13 FA outADDA13B12 outANDA0B13 gnd multOUT[13] CoutA13B13
XadderA14B1 FA outANDA14B0 outANDA13B1 CoutA13B1 outADDA14B1 CoutA14B1
XadderA14B2 FA outADDA14B1 outANDA12B2 CoutA13B2 outADDA14B2 CoutA14B2
XadderA14B3 FA outADDA14B2 outANDA11B3 CoutA13B3 outADDA14B3 CoutA14B3
XadderA14B4 FA outADDA14B3 outANDA10B4 CoutA13B4 outADDA14B4 CoutA14B4
XadderA14B5 FA outADDA14B4 outANDA9B5 CoutA13B5 outADDA14B5 CoutA14B5
XadderA14B6 FA outADDA14B5 outANDA8B6 CoutA13B6 outADDA14B6 CoutA14B6
XadderA14B7 FA outADDA14B6 outANDA7B7 CoutA13B7 outADDA14B7 CoutA14B7
XadderA14B8 FA outADDA14B7 outANDA6B8 CoutA13B8 outADDA14B8 CoutA14B8
XadderA14B9 FA outADDA14B8 outANDA5B9 CoutA13B9 outADDA14B9 CoutA14B9
XadderA14B10 FA outADDA14B9 outANDA4B10 CoutA13B10 outADDA14B10 CoutA14B10
XadderA14B11 FA outADDA14B10 outANDA3B11 CoutA13B11 outADDA14B11 CoutA14B11
XadderA14B12 FA outADDA14B11 outANDA2B12 CoutA13B12 outADDA14B12 CoutA14B12
XadderA14B13 FA outADDA14B12 outANDA1B13 CoutA13B13 outADDA14B13 CoutA14B13
XadderA14B14 FA outADDA14B13 outANDA0B14 gnd multOUT[14] CoutA14B14
XadderA15B1 FA outANDA15B0 outANDA14B1 CoutA14B1 outADDA15B1 CoutA15B1
XadderA15B2 FA outADDA15B1 outANDA13B2 CoutA14B2 outADDA15B2 CoutA15B2
XadderA15B3 FA outADDA15B2 outANDA12B3 CoutA14B3 outADDA15B3 CoutA15B3
XadderA15B4 FA outADDA15B3 outANDA11B4 CoutA14B4 outADDA15B4 CoutA15B4
XadderA15B5 FA outADDA15B4 outANDA10B5 CoutA14B5 outADDA15B5 CoutA15B5
XadderA15B6 FA outADDA15B5 outANDA9B6 CoutA14B6 outADDA15B6 CoutA15B6
XadderA15B7 FA outADDA15B6 outANDA8B7 CoutA14B7 outADDA15B7 CoutA15B7
XadderA15B8 FA outADDA15B7 outANDA7B8 CoutA14B8 outADDA15B8 CoutA15B8
XadderA15B9 FA outADDA15B8 outANDA6B9 CoutA14B9 outADDA15B9 CoutA15B9
XadderA15B10 FA outADDA15B9 outANDA5B10 CoutA14B10 outADDA15B10 CoutA15B10
XadderA15B11 FA outADDA15B10 outANDA4B11 CoutA14B11 outADDA15B11 CoutA15B11
XadderA15B12 FA outADDA15B11 outANDA3B12 CoutA14B12 outADDA15B12 CoutA15B12
XadderA15B13 FA outADDA15B12 outANDA2B13 CoutA14B13 outADDA15B13 CoutA15B13
XadderA15B14 FA outADDA15B13 outANDA1B14 CoutA14B14 outADDA15B14 CoutA15B14
XadderA15B15 FA outADDA15B14 outANDA0B15 gnd multOUT[15] CoutA15B15
XadderA16B1 FA outANDA16B0 outANDA15B1 CoutA15B1 outADDA16B1 CoutA16B1
XadderA16B2 FA outADDA16B1 outANDA14B2 CoutA15B2 outADDA16B2 CoutA16B2
XadderA16B3 FA outADDA16B2 outANDA13B3 CoutA15B3 outADDA16B3 CoutA16B3
XadderA16B4 FA outADDA16B3 outANDA12B4 CoutA15B4 outADDA16B4 CoutA16B4